[TITLE]


[JUNCTIONS]
;ID              	Elev        	Demand      	Pattern         
 1               	18          	5           	domanda1        	;
 2               	18          	10          	domanda1        	;
 3               	14          	0           	domanda1        	;
 4               	12          	5           	domanda1        	;
 5               	14          	30          	domanda1        	;
 7               	14.5        	0           	domanda1        	;
 6               	15          	10          	domanda1        	;
 9               	14          	0           	domanda1        	;
 8               	14          	20          	domanda1        	;
 10              	15          	5           	domanda1        	;
 11              	12          	10          	domanda1        	;
 12              	15          	0           	domanda1        	;
 13              	23          	0           	domanda1        	;
 15              	8           	20          	domanda1        	;
 14              	20          	5           	domanda1        	;
 16              	10          	0           	domanda1        	;
 17              	7           	0           	domanda1        	;
 19              	10          	5           	domanda1        	;
 20              	7           	0           	domanda1        	;
 21              	10          	0           	domanda1        	;
 22              	15          	20          	domanda1        	;
 18              	8           	5           	domanda1        	;

[RESERVOIRS]
;ID              	Head        	Pattern         
 23              	54.66       	23              	;
 24              	54.6        	24              	;
 25              	54.5        	25              	;

[TANKS]
;ID              	Elevation   	InitLevel   	MinLevel    	MaxLevel    	Diameter    	MinVol      	VolCurve

[PIPES]
;ID              	Node1           	Node2           	Length      	Diameter    	Roughness   	MinorLoss   	Status
 1               	23              	1               	606         	457         	110         	0           	Open  	;
 2               	2               	1               	1930        	457         	110         	0           	Open  	;
 3               	3               	2               	5150        	305         	10          	0           	Open  	;
 4               	5               	4               	844         	229         	110         	0           	Open  	;
 5               	5               	7               	500         	381         	110         	0           	Open  	;
 6               	7               	6               	615         	381         	110         	0           	Open  	;
 7               	6               	9               	300         	299         	90          	0           	Open  	;
 8               	9               	8               	443         	229         	90          	0           	Open  	;
 9               	6               	8               	743         	381         	110         	0           	Open  	;
 10              	8               	10              	249         	305         	105         	0           	Open  	;
 11              	10              	11              	542         	229         	90          	0           	Open  	;
 12              	11              	12              	777         	229         	90          	0           	Open  	;
 13              	8               	12              	1600        	457         	110         	0           	Open  	;
 14              	10              	24              	3382        	305         	100         	0           	Open  	;
 15              	13              	24              	1767        	475         	110         	0           	Open  	;
 16              	23              	24              	454         	457         	110         	0           	Open  	;
 17              	24              	14              	2782        	229         	105         	0           	Open  	;
 18              	14              	13              	1014        	381         	135         	0           	Open  	;
 19              	25              	14              	304         	381         	135         	0           	Open  	;
 20              	16              	25              	1097        	381         	6           	0           	Open  	;
 21              	17              	16              	822         	305         	140         	0           	Open  	;
 22              	19              	17              	1072        	229         	135         	0           	Open  	;
 23              	20              	19              	864         	152         	90          	0           	Open  	;
 24              	21              	20              	711         	152         	90          	0           	Open  	;
 25              	18              	17              	411         	152         	100         	0           	Open  	;
 26              	20              	18              	701         	229         	110         	0           	Open  	;
 27              	15              	16              	914         	229         	125         	0           	Open  	;
 28              	21              	15              	832         	152         	90          	0           	Open  	;
 29              	22              	15              	2334        	229         	100         	0           	Open  	;
 30              	22              	8               	931         	229         	125         	0           	Open  	;
 31              	5               	22              	1408        	152         	100         	0           	Open  	;
 32              	4               	3               	326         	152         	100         	0           	Open  	;
 33              	6               	3               	1274        	152         	100         	0           	Open  	;
 34              	5               	6               	1115        	229         	90          	0           	Open  	;
 35              	13              	12              	762         	457         	110         	0           	Open  	;
 36              	12              	15              	1996        	229         	95          	0           	Open  	;
 37              	22              	21              	2689        	152         	100         	0           	Open  	;

[PUMPS]
;ID              	Node1           	Node2           	Parameters

[VALVES]
;ID              	Node1           	Node2           	Diameter    	Type	Setting     	MinorLoss   

[TAGS]

[DEMANDS]
;Junction        	Demand      	Pattern         	Category

[STATUS]
;ID              	Status/Setting

[PATTERNS]
;ID              	Multipliers
;
 domanda1        	0.8         	0.8         	0.6         	0.6         	0.6         	0.6         
 domanda1        	1           	1           	1.4         	1.4         	1.3         	1.3         
 domanda1        	1.1         	1.1         	1.1         	1.1         	1.2         	1.2         
 domanda1        	1.1         	1.1         	1           	1           	0.8         	0.8         
;
 23              	1.01        	1.012       	1.015       	1.017       	1.02        	1.021       
 23              	1.022       	1.0245      	1.02        	1.0135      	1.01        	1.008       
 23              	1.004       	1           	0.999       	0.999       	0.997       	0.997       
 23              	0.999       	1           	1.002       	1.004       	1.006       	1.01        
;
 24              	1.011       	1.013       	1.013       	1.014       	1.014       	1.015       
 24              	1.015       	1.015       	1.013       	1.011       	1.007       	1.004       
 24              	1.004       	1.004       	1.002       	1           	1           	0.998       
 24              	1.002       	1.002       	1.002       	1.004       	1.0055      	1.007       
;
 25              	1.01        	1.011       	1.013       	1.015       	1.0165      	1.0165      
 25              	1.018       	1.018       	1.018       	1.01        	1.005       	1.004       
 25              	1           	0.998       	0.996       	0.992       	0.99        	0.99        
 25              	0.994       	0.996       	1           	1.002       	1.004       	1.007       

[CURVES]
;ID              	X-Value     	Y-Value

[CONTROLS]





[RULES]



[ENERGY]
 Global Efficiency  	75
 Global Price       	0
 Demand Charge      	0

[EMITTERS]
;Junction        	Coefficient
 1               	0.012055
 2               	0.033656
 3               	0.032088
 4               	0.005562
 5               	0.018383
 7               	0.0053
 6               	0.019238
 9               	0.003532
 8               	0.018853
 10              	0.019837
 11              	0.006270
 12              	0.024410
 13              	0.016842
 15              	0.028884
 14              	0.019490
 16              	0.013467
 17              	0.010819
 19              	0.009203
 20              	0.010819
 21              	0.020118
 22              	0.034997
 18              	0.005286

[QUALITY]
;Node            	InitQual

[SOURCES]
;Node            	Type        	Quality     	Pattern

[REACTIONS]
;Type     	Pipe/Tank       	Coefficient


[REACTIONS]
 Order Bulk            	1
 Order Tank            	1
 Order Wall            	1
 Global Bulk           	0
 Global Wall           	0
 Limiting Potential    	0
 Roughness Correlation 	0

[MIXING]
;Tank            	Model

[TIMES]
 Duration           	24:00 
 Hydraulic Timestep 	1:00 
 Quality Timestep   	1:00 
 Pattern Timestep   	1:00 
 Pattern Start      	0:00 
 Report Timestep    	1:00 
 Report Start       	0:00 
 Start ClockTime    	12 am
 Statistic          	NONE

[REPORT]
 Status             	Yes
 Summary            	No
 Page               	0

[OPTIONS]
 Units              	LPS
 Headloss           	H-W
 Specific Gravity   	1
 Viscosity          	1
 Trials             	40
 Accuracy           	0.01
 CHECKFREQ          	2
 MAXCHECK           	10
 DAMPLIMIT          	0
 Unbalanced         	Continue 10
 Pattern            	domanda1
 Demand Multiplier  	1.0
 Emitter Exponent   	0.5
 Quality            	None mg/L
 Diffusivity        	1
 Tolerance          	0.01

[COORDINATES]
;Node            	X-Coord         	Y-Coord
 1               	368.06          	8583.33         
 2               	1395.83         	8597.22         
 3               	2840.28         	8638.89         
 4               	3993.06         	8597.22         
 5               	5118.06         	8638.89         
 7               	5187.50         	7541.67         
 6               	3979.17         	7500.00         
 9               	3979.17         	6291.67         
 8               	2909.72         	6222.22         
 10              	1937.50         	6305.56         
 11              	1979.17         	5625.00         
 12              	2034.72         	4791.67         
 13              	645.83          	4763.89         
 15              	2131.94         	3486.11         
 14              	-1618.06        	4208.33         
 16              	437.50          	1972.22         
 17              	1562.50         	1986.11         
 19              	2284.72         	1958.33         
 20              	3423.61         	1902.78         
 21              	4506.94         	1902.78         
 22              	5493.06         	1930.56         
 18              	2243.06         	1069.44         
 23              	-1576.39        	8597.22         
 24              	-1562.50        	5569.44         
 25              	-1576.39        	2125.00         

[VERTICES]
;Link            	X-Coord         	Y-Coord
 5               	5201.39         	7472.22         
 17              	-1618.06        	4138.89         
 19              	-1562.50        	2041.67         
 26              	3395.83         	1805.56         
 31              	5854.17         	8597.22         
 31              	6451.39         	8125.00         
 31              	6604.17         	2472.22         

[LABELS]
;X-Coord           Y-Coord          Label & Anchor Node
 1198.55          4676.03          "V1"                 
 4866.91          1812.59          "V3"                 
 2201.41          4544.07          "V2"                 

[BACKDROP]
 DIMENSIONS     	-1973.61        	690.97          	5848.61         	9017.36         
 UNITS          	None
 FILE           	
 OFFSET         	0.00            	0.00            

[END]
